!-Generator IDFEditor 1.50
!-Option SortedOrder

!-NOTE: All comments with '!-' are ignored by the IDFEditor and are generated automatically.
!-      Use '!' comments if they need to be retained when using the IDFEditor.


!-   ===========  ALL OBJECTS IN CLASS: VERSION ===========

Version,
    8.9;                     !- Version Identifier


!-   ===========  ALL OBJECTS IN CLASS: SIMULATIONCONTROL ===========

SimulationControl,
    Yes,                     !- Do Zone Sizing Calculation
    Yes,                     !- Do System Sizing Calculation
    Yes,                     !- Do Plant Sizing Calculation
    No,                      !- Run Simulation for Sizing Periods
    Yes;                     !- Run Simulation for Weather File Run Periods


!-   ===========  ALL OBJECTS IN CLASS: BUILDING ===========

Building,
    Building 1,              !- Name
    0,                       !- North Axis {deg}
    city,                    !- Terrain
    ,                        !- Loads Convergence Tolerance Value
    ,                        !- Temperature Convergence Tolerance Value {deltaC}
    FullInteriorAndExterior, !- Solar Distribution
    50,                      !- Maximum Number of Warmup Days
    ;                        !- Minimum Number of Warmup Days


!-   ===========  ALL OBJECTS IN CLASS: SHADOWCALCULATION ===========

ShadowCalculation,
    AverageOverDaysInFrequency,  !- Calculation Method
    20,                      !- Calculation Frequency
    15000;                   !- Maximum Figures in Shadow Overlap Calculations


!-   ===========  ALL OBJECTS IN CLASS: SURFACECONVECTIONALGORITHM:INSIDE ===========

! ***MISC SIMULATION PARAMETERS***
SurfaceConvectionAlgorithm:Inside,
    TARP;                    !- Algorithm


!-   ===========  ALL OBJECTS IN CLASS: SURFACECONVECTIONALGORITHM:OUTSIDE ===========

SurfaceConvectionAlgorithm:Outside,
    DOE-2;                   !- Algorithm


!-   ===========  ALL OBJECTS IN CLASS: HEATBALANCEALGORITHM ===========

HeatBalanceAlgorithm,
    ConductionTransferFunction,  !- Algorithm
    200.0000;                !- Surface Temperature Upper Limit {C}


!-   ===========  ALL OBJECTS IN CLASS: ZONEAIRHEATBALANCEALGORITHM ===========

ZoneAirHeatBalanceAlgorithm,
    AnalyticalSolution;      !- Algorithm


!-   ===========  ALL OBJECTS IN CLASS: TIMESTEP ===========

Timestep,
    6;                       !- Number of Timesteps per Hour


!-   ===========  ALL OBJECTS IN CLASS: CONVERGENCELIMITS ===========

ConvergenceLimits,
    2,                       !- Minimum System Timestep {minutes}
    25;                      !- Maximum HVAC Iterations


!-   ===========  ALL OBJECTS IN CLASS: SITE:LOCATION ===========

Site:Location,
    Pittsburgh International Ap_PA_USA Design_Conditions,  !- Name
    40.5,                    !- Latitude {deg}
    -80.23,                  !- Longitude {deg}
    -5,                      !- Time Zone {hr}
    350;                     !- Elevation {m}


!-   ===========  ALL OBJECTS IN CLASS: SIZINGPERIOD:DESIGNDAY ===========

SizingPeriod:DesignDay,
    Pittsburgh International Ap Ann Clg .4% Condns DB=>MWB,  !- Name
    7,                       !- Month
    21,                      !- Day of Month
    SummerDesignDay,         !- Day Type
    31.9,                    !- Maximum Dry-Bulb Temperature {C}
    10.3,                    !- Daily Dry-Bulb Temperature Range {deltaC}
    DefaultMultipliers,      !- Dry-Bulb Temperature Range Modifier Type
    ,                        !- Dry-Bulb Temperature Range Modifier Day Schedule Name
    Wetbulb,                 !- Humidity Condition Type
    22.5,                    !- Wetbulb or DewPoint at Maximum Dry-Bulb {C}
    ,                        !- Humidity Condition Day Schedule Name
    ,                        !- Humidity Ratio at Maximum Dry-Bulb {kgWater/kgDryAir}
    ,                        !- Enthalpy at Maximum Dry-Bulb {J/kg}
    ,                        !- Daily Wet-Bulb Temperature Range {deltaC}
    97190,                   !- Barometric Pressure {Pa}
    4.5,                     !- Wind Speed {m/s}
    220,                     !- Wind Direction {deg}
    No,                      !- Rain Indicator
    No,                      !- Snow Indicator
    No,                      !- Daylight Saving Time Indicator
    ASHRAETau,               !- Solar Model Indicator
    ,                        !- Beam Solar Day Schedule Name
    ,                        !- Diffuse Solar Day Schedule Name
    0.479,                   !- ASHRAE Clear Sky Optical Depth for Beam Irradiance (taub) {dimensionless}
    1.937;                   !- ASHRAE Clear Sky Optical Depth for Diffuse Irradiance (taud) {dimensionless}

SizingPeriod:DesignDay,
    Pittsburgh International Ap Ann Clg .4% Condns DP=>MDB,  !- Name
    7,                       !- Month
    21,                      !- Day of Month
    SummerDesignDay,         !- Day Type
    26.6,                    !- Maximum Dry-Bulb Temperature {C}
    10.3,                    !- Daily Dry-Bulb Temperature Range {deltaC}
    DefaultMultipliers,      !- Dry-Bulb Temperature Range Modifier Type
    ,                        !- Dry-Bulb Temperature Range Modifier Day Schedule Name
    Dewpoint,                !- Humidity Condition Type
    22.3,                    !- Wetbulb or DewPoint at Maximum Dry-Bulb {C}
    ,                        !- Humidity Condition Day Schedule Name
    ,                        !- Humidity Ratio at Maximum Dry-Bulb {kgWater/kgDryAir}
    ,                        !- Enthalpy at Maximum Dry-Bulb {J/kg}
    ,                        !- Daily Wet-Bulb Temperature Range {deltaC}
    97190,                   !- Barometric Pressure {Pa}
    4.5,                     !- Wind Speed {m/s}
    220,                     !- Wind Direction {deg}
    No,                      !- Rain Indicator
    No,                      !- Snow Indicator
    No,                      !- Daylight Saving Time Indicator
    ASHRAETau,               !- Solar Model Indicator
    ,                        !- Beam Solar Day Schedule Name
    ,                        !- Diffuse Solar Day Schedule Name
    0.479,                   !- ASHRAE Clear Sky Optical Depth for Beam Irradiance (taub) {dimensionless}
    1.937;                   !- ASHRAE Clear Sky Optical Depth for Diffuse Irradiance (taud) {dimensionless}

SizingPeriod:DesignDay,
    Pittsburgh International Ap Ann Clg .4% Condns Enth=>MDB,  !- Name
    7,                       !- Month
    21,                      !- Day of Month
    SummerDesignDay,         !- Day Type
    29.5,                    !- Maximum Dry-Bulb Temperature {C}
    10.3,                    !- Daily Dry-Bulb Temperature Range {deltaC}
    DefaultMultipliers,      !- Dry-Bulb Temperature Range Modifier Type
    ,                        !- Dry-Bulb Temperature Range Modifier Day Schedule Name
    Enthalpy,                !- Humidity Condition Type
    ,                        !- Wetbulb or DewPoint at Maximum Dry-Bulb {C}
    ,                        !- Humidity Condition Day Schedule Name
    ,                        !- Humidity Ratio at Maximum Dry-Bulb {kgWater/kgDryAir}
    73600,                   !- Enthalpy at Maximum Dry-Bulb {J/kg}
    ,                        !- Daily Wet-Bulb Temperature Range {deltaC}
    97190,                   !- Barometric Pressure {Pa}
    4.5,                     !- Wind Speed {m/s}
    220,                     !- Wind Direction {deg}
    No,                      !- Rain Indicator
    No,                      !- Snow Indicator
    No,                      !- Daylight Saving Time Indicator
    ASHRAETau,               !- Solar Model Indicator
    ,                        !- Beam Solar Day Schedule Name
    ,                        !- Diffuse Solar Day Schedule Name
    0.479,                   !- ASHRAE Clear Sky Optical Depth for Beam Irradiance (taub) {dimensionless}
    1.937;                   !- ASHRAE Clear Sky Optical Depth for Diffuse Irradiance (taud) {dimensionless}

SizingPeriod:DesignDay,
    Pittsburgh International Ap Ann Clg .4% Condns WB=>MDB,  !- Name
    7,                       !- Month
    21,                      !- Day of Month
    SummerDesignDay,         !- Day Type
    29.3,                    !- Maximum Dry-Bulb Temperature {C}
    10.3,                    !- Daily Dry-Bulb Temperature Range {deltaC}
    DefaultMultipliers,      !- Dry-Bulb Temperature Range Modifier Type
    ,                        !- Dry-Bulb Temperature Range Modifier Day Schedule Name
    Wetbulb,                 !- Humidity Condition Type
    24,                      !- Wetbulb or DewPoint at Maximum Dry-Bulb {C}
    ,                        !- Humidity Condition Day Schedule Name
    ,                        !- Humidity Ratio at Maximum Dry-Bulb {kgWater/kgDryAir}
    ,                        !- Enthalpy at Maximum Dry-Bulb {J/kg}
    ,                        !- Daily Wet-Bulb Temperature Range {deltaC}
    97190,                   !- Barometric Pressure {Pa}
    4.5,                     !- Wind Speed {m/s}
    220,                     !- Wind Direction {deg}
    No,                      !- Rain Indicator
    No,                      !- Snow Indicator
    No,                      !- Daylight Saving Time Indicator
    ASHRAETau,               !- Solar Model Indicator
    ,                        !- Beam Solar Day Schedule Name
    ,                        !- Diffuse Solar Day Schedule Name
    0.479,                   !- ASHRAE Clear Sky Optical Depth for Beam Irradiance (taub) {dimensionless}
    1.937;                   !- ASHRAE Clear Sky Optical Depth for Diffuse Irradiance (taud) {dimensionless}

SizingPeriod:DesignDay,
    Pittsburgh International Ap Ann Htg 99.6% Condns DB,  !- Name
    1,                       !- Month
    21,                      !- Day of Month
    WinterDesignDay,         !- Day Type
    -15.7,                   !- Maximum Dry-Bulb Temperature {C}
    0,                       !- Daily Dry-Bulb Temperature Range {deltaC}
    DefaultMultipliers,      !- Dry-Bulb Temperature Range Modifier Type
    ,                        !- Dry-Bulb Temperature Range Modifier Day Schedule Name
    Wetbulb,                 !- Humidity Condition Type
    -15.7,                   !- Wetbulb or DewPoint at Maximum Dry-Bulb {C}
    ,                        !- Humidity Condition Day Schedule Name
    ,                        !- Humidity Ratio at Maximum Dry-Bulb {kgWater/kgDryAir}
    ,                        !- Enthalpy at Maximum Dry-Bulb {J/kg}
    ,                        !- Daily Wet-Bulb Temperature Range {deltaC}
    97190,                   !- Barometric Pressure {Pa}
    3.6,                     !- Wind Speed {m/s}
    240,                     !- Wind Direction {deg}
    No,                      !- Rain Indicator
    No,                      !- Snow Indicator
    No,                      !- Daylight Saving Time Indicator
    ASHRAEClearSky,          !- Solar Model Indicator
    ,                        !- Beam Solar Day Schedule Name
    ,                        !- Diffuse Solar Day Schedule Name
    ,                        !- ASHRAE Clear Sky Optical Depth for Beam Irradiance (taub) {dimensionless}
    ,                        !- ASHRAE Clear Sky Optical Depth for Diffuse Irradiance (taud) {dimensionless}
    0;                       !- Sky Clearness

SizingPeriod:DesignDay,
    Pittsburgh International Ap Ann Htg Wind 99.6% Condns WS=>MCDB,  !- Name
    1,                       !- Month
    21,                      !- Day of Month
    WinterDesignDay,         !- Day Type
    -5.5,                    !- Maximum Dry-Bulb Temperature {C}
    0,                       !- Daily Dry-Bulb Temperature Range {deltaC}
    DefaultMultipliers,      !- Dry-Bulb Temperature Range Modifier Type
    ,                        !- Dry-Bulb Temperature Range Modifier Day Schedule Name
    Wetbulb,                 !- Humidity Condition Type
    -5.5,                    !- Wetbulb or DewPoint at Maximum Dry-Bulb {C}
    ,                        !- Humidity Condition Day Schedule Name
    ,                        !- Humidity Ratio at Maximum Dry-Bulb {kgWater/kgDryAir}
    ,                        !- Enthalpy at Maximum Dry-Bulb {J/kg}
    ,                        !- Daily Wet-Bulb Temperature Range {deltaC}
    97190,                   !- Barometric Pressure {Pa}
    12.2,                    !- Wind Speed {m/s}
    240,                     !- Wind Direction {deg}
    No,                      !- Rain Indicator
    No,                      !- Snow Indicator
    No,                      !- Daylight Saving Time Indicator
    ASHRAEClearSky,          !- Solar Model Indicator
    ,                        !- Beam Solar Day Schedule Name
    ,                        !- Diffuse Solar Day Schedule Name
    ,                        !- ASHRAE Clear Sky Optical Depth for Beam Irradiance (taub) {dimensionless}
    ,                        !- ASHRAE Clear Sky Optical Depth for Diffuse Irradiance (taud) {dimensionless}
    0;                       !- Sky Clearness

SizingPeriod:DesignDay,
    Pittsburgh International Ap Ann Hum_n 99.6% Condns DP=>MCDB,  !- Name
    1,                       !- Month
    21,                      !- Day of Month
    WinterDesignDay,         !- Day Type
    -14.2,                   !- Maximum Dry-Bulb Temperature {C}
    0,                       !- Daily Dry-Bulb Temperature Range {deltaC}
    DefaultMultipliers,      !- Dry-Bulb Temperature Range Modifier Type
    ,                        !- Dry-Bulb Temperature Range Modifier Day Schedule Name
    Dewpoint,                !- Humidity Condition Type
    -20.6,                   !- Wetbulb or DewPoint at Maximum Dry-Bulb {C}
    ,                        !- Humidity Condition Day Schedule Name
    ,                        !- Humidity Ratio at Maximum Dry-Bulb {kgWater/kgDryAir}
    ,                        !- Enthalpy at Maximum Dry-Bulb {J/kg}
    ,                        !- Daily Wet-Bulb Temperature Range {deltaC}
    97190,                   !- Barometric Pressure {Pa}
    3.6,                     !- Wind Speed {m/s}
    240,                     !- Wind Direction {deg}
    No,                      !- Rain Indicator
    No,                      !- Snow Indicator
    No,                      !- Daylight Saving Time Indicator
    ASHRAEClearSky,          !- Solar Model Indicator
    ,                        !- Beam Solar Day Schedule Name
    ,                        !- Diffuse Solar Day Schedule Name
    ,                        !- ASHRAE Clear Sky Optical Depth for Beam Irradiance (taub) {dimensionless}
    ,                        !- ASHRAE Clear Sky Optical Depth for Diffuse Irradiance (taud) {dimensionless}
    0;                       !- Sky Clearness


!-   ===========  ALL OBJECTS IN CLASS: RUNPERIOD ===========

RunPeriod,
    Run Period 1,            !- Name
    1,                       !- Begin Month
    1,                       !- Begin Day of Month
    12,                      !- End Month
    31,                      !- End Day of Month
    Thursday,                !- Day of Week for Start Day
    No,                      !- Use Weather File Holidays and Special Days
    No,                      !- Use Weather File Daylight Saving Period
    No,                      !- Apply Weekend Holiday Rule
    Yes,                     !- Use Weather File Rain Indicators
    Yes,                     !- Use Weather File Snow Indicators
    1;                       !- Number of Times Runperiod to be Repeated


!-   ===========  ALL OBJECTS IN CLASS: RUNPERIODCONTROL:SPECIALDAYS ===========

RunPeriodControl:SpecialDays,
    Christmas Day,           !- Name
    12/25,                   !- Start Date
    ,                        !- Duration {days}
    ;                        !- Special Day Type

RunPeriodControl:SpecialDays,
    Columbus Day,            !- Name
    2nd Monday in Oct,       !- Start Date
    ,                        !- Duration {days}
    ;                        !- Special Day Type

RunPeriodControl:SpecialDays,
    Independence Day,        !- Name
    7/4,                     !- Start Date
    ,                        !- Duration {days}
    ;                        !- Special Day Type

RunPeriodControl:SpecialDays,
    Labor Day,               !- Name
    1st Monday in Sep,       !- Start Date
    ,                        !- Duration {days}
    ;                        !- Special Day Type

RunPeriodControl:SpecialDays,
    Martin Luther King Day,  !- Name
    3rd Monday in Jan,       !- Start Date
    ,                        !- Duration {days}
    ;                        !- Special Day Type

RunPeriodControl:SpecialDays,
    Memorial Day,            !- Name
    Last Monday in May,      !- Start Date
    ,                        !- Duration {days}
    ;                        !- Special Day Type

RunPeriodControl:SpecialDays,
    New Years Day,          !- Name
    1/1,                     !- Start Date
    ,                        !- Duration {days}
    ;                        !- Special Day Type

RunPeriodControl:SpecialDays,
    Presidents Day,          !- Name
    3rd Monday in Feb,       !- Start Date
    ,                        !- Duration {days}
    ;                        !- Special Day Type

RunPeriodControl:SpecialDays,
    Thanksgiving Day,        !- Name
    4th Thursday in Nov,     !- Start Date
    ,                        !- Duration {days}
    ;                        !- Special Day Type

RunPeriodControl:SpecialDays,
    Veterans Day,            !- Name
    11/11,                   !- Start Date
    ,                        !- Duration {days}
    ;                        !- Special Day Type


!-   ===========  ALL OBJECTS IN CLASS: RUNPERIODCONTROL:DAYLIGHTSAVINGTIME ===========

RunPeriodControl:DaylightSavingTime,
    2nd Sunday in March,     !- Start Date
    2nd Sunday in November;  !- End Date


!-   ===========  ALL OBJECTS IN CLASS: SITE:GROUNDTEMPERATURE:BUILDINGSURFACE ===========

Site:GroundTemperature:BuildingSurface,
    19.527,                  !- January Ground Temperature {C}
    19.502,                  !- February Ground Temperature {C}
    19.536,                  !- March Ground Temperature {C}
    19.598,                  !- April Ground Temperature {C}
    20.002,                  !- May Ground Temperature {C}
    21.640,                  !- June Ground Temperature {C}
    22.225,                  !- July Ground Temperature {C}
    22.375,                  !- August Ground Temperature {C}
    21.449,                  !- September Ground Temperature {C}
    20.121,                  !- October Ground Temperature {C}
    19.802,                  !- November Ground Temperature {C}
    19.633;                  !- December Ground Temperature {C}


!-   ===========  ALL OBJECTS IN CLASS: SITE:WATERMAINSTEMPERATURE ===========

Site:WaterMainsTemperature,
    CORRELATION,             !- Calculation Method
    ,                        !- Temperature Schedule Name
    9.69,                    !- Annual Average Outdoor Air Temperature {C}
    28.10;                   !- Maximum Difference In Monthly Average Outdoor Air Temperatures {deltaC}


!-   ===========  ALL OBJECTS IN CLASS: SCHEDULETYPELIMITS ===========

ScheduleTypeLimits,
    S1 office back Thermostat Schedule Type Limits,  !- Name
    0,                       !- Lower Limit Value
    4,                       !- Upper Limit Value
    DISCRETE;                !- Numeric Type

ScheduleTypeLimits,
    temp_setpoint,           !- Name
    0,                       !- Lower Limit Value
    50,                      !- Upper Limit Value
    continuous,              !- Numeric Type
    temperature;             !- Unit Type

ScheduleTypeLimits,
    S1 office core Thermostat Schedule Type Limits,  !- Name
    0,                       !- Lower Limit Value
    4,                       !- Upper Limit Value
    DISCRETE;                !- Numeric Type

ScheduleTypeLimits,
    S1 office front Thermostat Schedule Type Limits,  !- Name
    0,                       !- Lower Limit Value
    4,                       !- Upper Limit Value
    DISCRETE;                !- Numeric Type

ScheduleTypeLimits,
    S1 office left Thermostat Schedule Type Limits,  !- Name
    0,                       !- Lower Limit Value
    4,                       !- Upper Limit Value
    DISCRETE;                !- Numeric Type

ScheduleTypeLimits,
    S1 office right Thermostat Schedule Type Limits,  !- Name
    0,                       !- Lower Limit Value
    4,                       !- Upper Limit Value
    DISCRETE;                !- Numeric Type

ScheduleTypeLimits,
    activity_level,          !- Name
    0,                       !- Lower Limit Value
    600,                     !- Upper Limit Value
    continuous,              !- Numeric Type
    activitylevel;           !- Unit Type

ScheduleTypeLimits,
    any_number;              !- Name

ScheduleTypeLimits,
    fractional,              !- Name
    0,                       !- Lower Limit Value
    1,                       !- Upper Limit Value
    continuous;              !- Numeric Type

ScheduleTypeLimits,
    on_off,                  !- Name
    0,                       !- Lower Limit Value
    1,                       !- Upper Limit Value
    discrete;                !- Numeric Type

ScheduleTypeLimits,
    positive_number,         !- Name
    0,                       !- Lower Limit Value
    ,                        !- Upper Limit Value
    continuous;              !- Numeric Type

ScheduleTypeLimits,
    Schedule Type Limits 1,  !- Name
    0,                       !- Lower Limit Value
    1,                       !- Upper Limit Value
    Discrete,                !- Numeric Type
    availability;            !- Unit Type

ScheduleTypeLimits,
    shw_temp,                !- Name
    0,                       !- Lower Limit Value
    100,                     !- Upper Limit Value
    continuous,              !- Numeric Type
    temperature;             !- Unit Type

ScheduleTypeLimits,
    Number,                  !- Name
    1,                       !- Lower Limit Value
    4,                       !- Upper Limit Value
    DISCRETE;                !- Numeric Type


!-   ===========  ALL OBJECTS IN CLASS: SCHEDULE:DAY:INTERVAL ===========

Schedule:Day:Interval,
    office heating week 0 Sunday,  !- Name
    temp_setpoint,           !- Schedule Type Limits Name
    No,                      !- Interpolate to Timestep
    01:00,                   !- Time 1 {hh:mm}
    15.5556,                 !- Value Until Time 1
    02:00,                   !- Time 2 {hh:mm}
    15.5556,                 !- Value Until Time 2
    03:00,                   !- Time 3 {hh:mm}
    15.5556,                 !- Value Until Time 3
    04:00,                   !- Time 4 {hh:mm}
    15.5556,                 !- Value Until Time 4
    05:00,                   !- Time 5 {hh:mm}
    15.5556,                 !- Value Until Time 5
    06:00,                   !- Time 6 {hh:mm}
    15.5556,                 !- Value Until Time 6
    07:00,                   !- Time 7 {hh:mm}
    15.5556,                 !- Value Until Time 7
    08:00,                   !- Time 8 {hh:mm}
    15.5556,                 !- Value Until Time 8
    09:00,                   !- Time 9 {hh:mm}
    15.5556,                 !- Value Until Time 9
    10:00,                   !- Time 10 {hh:mm}
    15.5556,                 !- Value Until Time 10
    11:00,                   !- Time 11 {hh:mm}
    15.5556,                 !- Value Until Time 11
    12:00,                   !- Time 12 {hh:mm}
    15.5556,                 !- Value Until Time 12
    13:00,                   !- Time 13 {hh:mm}
    15.5556,                 !- Value Until Time 13
    14:00,                   !- Time 14 {hh:mm}
    15.5556,                 !- Value Until Time 14
    15:00,                   !- Time 15 {hh:mm}
    15.5556,                 !- Value Until Time 15
    16:00,                   !- Time 16 {hh:mm}
    15.5556,                 !- Value Until Time 16
    17:00,                   !- Time 17 {hh:mm}
    15.5556,                 !- Value Until Time 17
    18:00,                   !- Time 18 {hh:mm}
    15.5556,                 !- Value Until Time 18
    19:00,                   !- Time 19 {hh:mm}
    15.5556,                 !- Value Until Time 19
    20:00,                   !- Time 20 {hh:mm}
    15.5556,                 !- Value Until Time 20
    21:00,                   !- Time 21 {hh:mm}
    15.5556,                 !- Value Until Time 21
    22:00,                   !- Time 22 {hh:mm}
    15.5556,                 !- Value Until Time 22
    23:00,                   !- Time 23 {hh:mm}
    15.5556,                 !- Value Until Time 23
    24:00,                   !- Time 24 {hh:mm}
    15.5556;                 !- Value Until Time 24

Schedule:Day:Interval,
    office heating week 0 Wednesday,  !- Name
    temp_setpoint,           !- Schedule Type Limits Name
    No,                      !- Interpolate to Timestep
    01:00,                   !- Time 1 {hh:mm}
    15.5556,                 !- Value Until Time 1
    02:00,                   !- Time 2 {hh:mm}
    15.5556,                 !- Value Until Time 2
    03:00,                   !- Time 3 {hh:mm}
    15.5556,                 !- Value Until Time 3
    04:00,                   !- Time 4 {hh:mm}
    15.5556,                 !- Value Until Time 4
    05:00,                   !- Time 5 {hh:mm}
    15.5556,                 !- Value Until Time 5
    06:00,                   !- Time 6 {hh:mm}
    21.1111,                 !- Value Until Time 6
    07:00,                   !- Time 7 {hh:mm}
    21.1111,                 !- Value Until Time 7
    08:00,                   !- Time 8 {hh:mm}
    21.1111,                 !- Value Until Time 8
    09:00,                   !- Time 9 {hh:mm}
    21.1111,                 !- Value Until Time 9
    10:00,                   !- Time 10 {hh:mm}
    21.1111,                 !- Value Until Time 10
    11:00,                   !- Time 11 {hh:mm}
    21.1111,                 !- Value Until Time 11
    12:00,                   !- Time 12 {hh:mm}
    21.1111,                 !- Value Until Time 12
    13:00,                   !- Time 13 {hh:mm}
    21.1111,                 !- Value Until Time 13
    14:00,                   !- Time 14 {hh:mm}
    21.1111,                 !- Value Until Time 14
    15:00,                   !- Time 15 {hh:mm}
    21.1111,                 !- Value Until Time 15
    16:00,                   !- Time 16 {hh:mm}
    21.1111,                 !- Value Until Time 16
    17:00,                   !- Time 17 {hh:mm}
    21.1111,                 !- Value Until Time 17
    18:00,                   !- Time 18 {hh:mm}
    21.1111,                 !- Value Until Time 18
    19:00,                   !- Time 19 {hh:mm}
    21.1111,                 !- Value Until Time 19
    20:00,                   !- Time 20 {hh:mm}
    21.1111,                 !- Value Until Time 20
    21:00,                   !- Time 21 {hh:mm}
    21.1111,                 !- Value Until Time 21
    22:00,                   !- Time 22 {hh:mm}
    21.1111,                 !- Value Until Time 22
    23:00,                   !- Time 23 {hh:mm}
    21.1111,                 !- Value Until Time 23
    24:00,                   !- Time 24 {hh:mm}
    21.1111;                 !- Value Until Time 24

Schedule:Day:Interval,
    office heating week 0 Thursday,  !- Name
    temp_setpoint,           !- Schedule Type Limits Name
    No,                      !- Interpolate to Timestep
    01:00,                   !- Time 1 {hh:mm}
    15.5556,                 !- Value Until Time 1
    02:00,                   !- Time 2 {hh:mm}
    15.5556,                 !- Value Until Time 2
    03:00,                   !- Time 3 {hh:mm}
    15.5556,                 !- Value Until Time 3
    04:00,                   !- Time 4 {hh:mm}
    15.5556,                 !- Value Until Time 4
    05:00,                   !- Time 5 {hh:mm}
    15.5556,                 !- Value Until Time 5
    06:00,                   !- Time 6 {hh:mm}
    21.1111,                 !- Value Until Time 6
    07:00,                   !- Time 7 {hh:mm}
    21.1111,                 !- Value Until Time 7
    08:00,                   !- Time 8 {hh:mm}
    21.1111,                 !- Value Until Time 8
    09:00,                   !- Time 9 {hh:mm}
    21.1111,                 !- Value Until Time 9
    10:00,                   !- Time 10 {hh:mm}
    21.1111,                 !- Value Until Time 10
    11:00,                   !- Time 11 {hh:mm}
    21.1111,                 !- Value Until Time 11
    12:00,                   !- Time 12 {hh:mm}
    21.1111,                 !- Value Until Time 12
    13:00,                   !- Time 13 {hh:mm}
    21.1111,                 !- Value Until Time 13
    14:00,                   !- Time 14 {hh:mm}
    21.1111,                 !- Value Until Time 14
    15:00,                   !- Time 15 {hh:mm}
    21.1111,                 !- Value Until Time 15
    16:00,                   !- Time 16 {hh:mm}
    21.1111,                 !- Value Until Time 16
    17:00,                   !- Time 17 {hh:mm}
    21.1111,                 !- Value Until Time 17
    18:00,                   !- Time 18 {hh:mm}
    21.1111,                 !- Value Until Time 18
    19:00,                   !- Time 19 {hh:mm}
    21.1111,                 !- Value Until Time 19
    20:00,                   !- Time 20 {hh:mm}
    21.1111,                 !- Value Until Time 20
    21:00,                   !- Time 21 {hh:mm}
    21.1111,                 !- Value Until Time 21
    22:00,                   !- Time 22 {hh:mm}
    21.1111,                 !- Value Until Time 22
    23:00,                   !- Time 23 {hh:mm}
    21.1111,                 !- Value Until Time 23
    24:00,                   !- Time 24 {hh:mm}