!- Windows Line endings 

Version,
    8.9;                      !- Version Identifier

SimulationControl,
    Yes,                      !- Do Zone Sizing Calculation
    Yes,                      !- Do System Sizing Calculation
    Yes,                      !- Do Plant Sizing Calculation
    No,                       !- Run Simulation for Sizing Periods
    Yes;                      !- Run Simulation for Weather File Run Periods

Building,
    Building 1,               !- Name
    0.0,                      !- North Axis
    city,                     !- Terrain
    ,                         !- Loads Convergence Tolerance Value
    ,                         !- Temperature Convergence Tolerance Value
    FullInteriorAndExterior,    !- Solar Distribution
    50,                       !- Maximum Number of Warmup Days
    ;                         !- Minimum Number of Warmup Days

ShadowCalculation,
    AverageOverDaysInFrequency,    !- Calculation Method
    20,                       !- Calculation Frequency
    15000;                    !- Maximum Figures in Shadow Overlap Calculations

SurfaceConvectionAlgorithm:Inside,
    TARP;                     !- Algorithm

SurfaceConvectionAlgorithm:Outside,
    DOE-2;                    !- Algorithm

HeatBalanceAlgorithm,
    ConductionTransferFunction,    !- Algorithm
    200.0;                    !- Surface Temperature Upper Limit

ZoneAirHeatBalanceAlgorithm,
    AnalyticalSolution;       !- Algorithm

ZoneAirContaminantBalance,
    Yes,                      !- Carbon Dioxide Concentration
    Out_CO2,                  !- Outdoor Carbon Dioxide Schedule Name
    No;                       !- Generic Contaminant Concentration

Timestep,
    6;                        !- Number of Timesteps per Hour

ConvergenceLimits,
    2,                        !- Minimum System Timestep
    25;                       !- Maximum HVAC Iterations

Site:Location,
    Pittsburgh International Ap_PA_USA Design_Conditions,    !- Name
    40.5,                     !- Latitude
    -80.23,                   !- Longitude
    -5.0,                     !- Time Zone
    350.0;                    !- Elevation

SizingPeriod:DesignDay,
    Pittsburgh International Ap Ann Clg .4% Condns DB=>MWB,    !- Name
    7,                        !- Month
    21,                       !- Day of Month
    SummerDesignDay,          !- Day Type
    31.9,                     !- Maximum DryBulb Temperature
    10.3,                     !- Daily DryBulb Temperature Range
    DefaultMultipliers,       !- DryBulb Temperature Range Modifier Type
    ,                         !- DryBulb Temperature Range Modifier Day Schedule Name
    Wetbulb,                  !- Humidity Condition Type
    22.5,                     !- Wetbulb or DewPoint at Maximum DryBulb
    ,                         !- Humidity Condition Day Schedule Name
    ,                         !- Humidity Ratio at Maximum DryBulb
    ,                         !- Enthalpy at Maximum DryBulb
    ,                         !- Daily WetBulb Temperature Range
    97190.0,                  !- Barometric Pressure
    4.5,                      !- Wind Speed
    220.0,                    !- Wind Direction
    No,                       !- Rain Indicator
    No,                       !- Snow Indicator
    No,                       !- Daylight Saving Time Indicator
    ASHRAETau,                !- Solar Model Indicator
    ,                         !- Beam Solar Day Schedule Name
    ,                         !- Diffuse Solar Day Schedule Name
    0.479,                    !- ASHRAE Clear Sky Optical Depth for Beam Irradiance taub
    1.937;                    !- ASHRAE Clear Sky Optical Depth for Diffuse Irradiance taud

SizingPeriod:DesignDay,
    Pittsburgh International Ap Ann Clg .4% Condns DP=>MDB,    !- Name
    7,                        !- Month
    21,                       !- Day of Month
    SummerDesignDay,          !- Day Type
    26.6,                     !- Maximum DryBulb Temperature
    10.3,                     !- Daily DryBulb Temperature Range
    DefaultMultipliers,       !- DryBulb Temperature Range Modifier Type
    ,                         !- DryBulb Temperature Range Modifier Day Schedule Name
    Dewpoint,                 !- Humidity Condition Type
    22.3,                     !- Wetbulb or DewPoint at Maximum DryBulb
    ,                         !- Humidity Condition Day Schedule Name
    ,                         !- Humidity Ratio at Maximum DryBulb
    ,                         !- Enthalpy at Maximum DryBulb
    ,                         !- Daily WetBulb Temperature Range
    97190.0,                  !- Barometric Pressure
    4.5,                      !- Wind Speed
    220.0,                    !- Wind Direction
    No,                       !- Rain Indicator
    No,                       !- Snow Indicator
    No,                       !- Daylight Saving Time Indicator
    ASHRAETau,                !- Solar Model Indicator
    ,                         !- Beam Solar Day Schedule Name
    ,                         !- Diffuse Solar Day Schedule Name
    0.479,                    !- ASHRAE Clear Sky Optical Depth for Beam Irradiance taub
    1.937;                    !- ASHRAE Clear Sky Optical Depth for Diffuse Irradiance taud

SizingPeriod:DesignDay,
    Pittsburgh International Ap Ann Clg .4% Condns Enth=>MDB,    !- Name
    7,                        !- Month
    21,                       !- Day of Month
    SummerDesignDay,          !- Day Type
    29.5,                     !- Maximum DryBulb Temperature
    10.3,                     !- Daily DryBulb Temperature Range
    DefaultMultipliers,       !- DryBulb Temperature Range Modifier Type
    ,                         !- DryBulb Temperature Range Modifier Day Schedule Name
    Enthalpy,                 !- Humidity Condition Type
    ,                         !- Wetbulb or DewPoint at Maximum DryBulb
    ,                         !- Humidity Condition Day Schedule Name
    ,                         !- Humidity Ratio at Maximum DryBulb
    73600.0,                  !- Enthalpy at Maximum DryBulb
    ,                         !- Daily WetBulb Temperature Range
    97190.0,                  !- Barometric Pressure
    4.5,                      !- Wind Speed
    220.0,                    !- Wind Direction
    No,                       !- Rain Indicator
    No,                       !- Snow Indicator
    No,                       !- Daylight Saving Time Indicator
    ASHRAETau,                !- Solar Model Indicator
    ,                         !- Beam Solar Day Schedule Name
    ,                         !- Diffuse Solar Day Schedule Name
    0.479,                    !- ASHRAE Clear Sky Optical Depth for Beam Irradiance taub
    1.937;                    !- ASHRAE Clear Sky Optical Depth for Diffuse Irradiance taud

SizingPeriod:DesignDay,
    Pittsburgh International Ap Ann Clg .4% Condns WB=>MDB,    !- Name
    7,                        !- Month
    21,                       !- Day of Month
    SummerDesignDay,          !- Day Type
    29.3,                     !- Maximum DryBulb Temperature
    10.3,                     !- Daily DryBulb Temperature Range
    DefaultMultipliers,       !- DryBulb Temperature Range Modifier Type
    ,                         !- DryBulb Temperature Range Modifier Day Schedule Name
    Wetbulb,                  !- Humidity Condition Type
    24.0,                     !- Wetbulb or DewPoint at Maximum DryBulb
    ,                         !- Humidity Condition Day Schedule Name
    ,                         !- Humidity Ratio at Maximum DryBulb
    ,                         !- Enthalpy at Maximum DryBulb
    ,                         !- Daily WetBulb Temperature Range
    97190.0,                  !- Barometric Pressure
    4.5,                      !- Wind Speed
    220.0,                    !- Wind Direction
    No,                       !- Rain Indicator
    No,                       !- Snow Indicator
    No,                       !- Daylight Saving Time Indicator
    ASHRAETau,                !- Solar Model Indicator
    ,                         !- Beam Solar Day Schedule Name
    ,                         !- Diffuse Solar Day Schedule Name
    0.479,                    !- ASHRAE Clear Sky Optical Depth for Beam Irradiance taub
    1.937;                    !- ASHRAE Clear Sky Optical Depth for Diffuse Irradiance taud

SizingPeriod:DesignDay,
    Pittsburgh International Ap Ann Htg 99.6% Condns DB,    !- Name
    1,                        !- Month
    21,                       !- Day of Month
    WinterDesignDay,          !- Day Type
    -15.7,                    !- Maximum DryBulb Temperature
    0.0,                      !- Daily DryBulb Temperature Range
    DefaultMultipliers,       !- DryBulb Temperature Range Modifier Type
    ,                         !- DryBulb Temperature Range Modifier Day Schedule Name
    Wetbulb,                  !- Humidity Condition Type
    -15.7,                    !- Wetbulb or DewPoint at Maximum DryBulb
    ,                         !- Humidity Condition Day Schedule Name
    ,                         !- Humidity Ratio at Maximum DryBulb
    ,                         !- Enthalpy at Maximum DryBulb
    ,                         !- Daily WetBulb Temperature Range
    97190.0,                  !- Barometric Pressure
    3.6,                      !- Wind Speed
    240.0,                    !- Wind Direction
    No,                       !- Rain Indicator
    No,                       !- Snow Indicator
    No,                       !- Daylight Saving Time Indicator
    ASHRAEClearSky,           !- Solar Model Indicator
    ,                         !- Beam Solar Day Schedule Name
    ,                         !- Diffuse Solar Day Schedule Name
    ,                         !- ASHRAE Clear Sky Optical Depth for Beam Irradiance taub
    ,                         !- ASHRAE Clear Sky Optical Depth for Diffuse Irradiance taud
    0.0;                      !- Sky Clearness

SizingPeriod:DesignDay,
    Pittsburgh International Ap Ann Htg Wind 99.6% Condns WS=>MCDB,    !- Name
    1,                        !- Month
    21,                       !- Day of Month
    WinterDesignDay,          !- Day Type
    -5.5,                     !- Maximum DryBulb Temperature
    0.0,                      !- Daily DryBulb Temperature Range
    DefaultMultipliers,       !- DryBulb Temperature Range Modifier Type
    ,                         !- DryBulb Temperature Range Modifier Day Schedule Name
    Wetbulb,                  !- Humidity Condition Type
    -5.5,                     !- Wetbulb or DewPoint at Maximum DryBulb
    ,                         !- Humidity Condition Day Schedule Name
    ,                         !- Humidity Ratio at Maximum DryBulb
    ,                         !- Enthalpy at Maximum DryBulb
    ,                         !- Daily WetBulb Temperature Range
    97190.0,                  !- Barometric Pressure
    12.2,                     !- Wind Speed
    240.0,                    !- Wind Direction
    No,                       !- Rain Indicator
    No,                       !- Snow Indicator
    No,                       !- Daylight Saving Time Indicator
    ASHRAEClearSky,           !- Solar Model Indicator
    ,                         !- Beam Solar Day Schedule Name
    ,                         !- Diffuse Solar Day Schedule Name
    ,                         !- ASHRAE Clear Sky Optical Depth for Beam Irradiance taub
    ,                         !- ASHRAE Clear Sky Optical Depth for Diffuse Irradiance taud
    0.0;                      !- Sky Clearness

SizingPeriod:DesignDay,
    Pittsburgh International Ap Ann Hum_n 99.6% Condns DP=>MCDB,    !- Name
    1,                        !- Month
    21,                       !- Day of Month
    WinterDesignDay,          !- Day Type
    -14.2,                    !- Maximum DryBulb Temperature
    0.0,                      !- Daily DryBulb Temperature Range
    DefaultMultipliers,       !- DryBulb Temperature Range Modifier Type
    ,                         !- DryBulb Temperature Range Modifier Day Schedule Name
    Dewpoint,                 !- Humidity Condition Type
    -20.6,                    !- Wetbulb or DewPoint at Maximum DryBulb
    ,                         !- Humidity Condition Day Schedule Name
    ,                         !- Humidity Ratio at Maximum DryBulb
    ,                         !- Enthalpy at Maximum DryBulb
    ,                         !- Daily WetBulb Temperature Range
    97190.0,                  !- Barometric Pressure
    3.6,                      !- Wind Speed
    240.0,                    !- Wind Direction
    No,                       !- Rain Indicator
    No,                       !- Snow Indicator
    No,                       !- Daylight Saving Time Indicator
    ASHRAEClearSky,           !- Solar Model Indicator
    ,                         !- Beam Solar Day Schedule Name
    ,                         !- Diffuse Solar Day Schedule Name
    ,                         !- ASHRAE Clear Sky Optical Depth for Beam Irradiance taub
    ,                         !- ASHRAE Clear Sky Optical Depth for Diffuse Irradiance taud
    0.0;                      !- Sky Clearness

RunPeriod,
    Run Period 1,             !- Name
    1,                        !- Begin Month
    1,                        !- Begin Day of Month
    12,                       !- End Month
    31,                       !- End Day of Month
    Thursday,                 !- Day of Week for Start Day
    No,                       !- Use Weather File Holidays and Special Days
    No,                       !- Use Weather File Daylight Saving Period
    No,                       !- Apply Weekend Holiday Rule
    Yes,                      !- Use Weather File Rain Indicators
    Yes,                      !- Use Weather File Snow Indicators
    1;                        !- Number of Times Runperiod to be Repeated

RunPeriodControl:SpecialDays,
    Christmas Day,            !- Name
    12/25,                    !- Start Date
    ,                         !- Duration
    ;                         !- Special Day Type

RunPeriodControl:SpecialDays,
    Columbus Day,             !- Name
    2nd Monday in Oct,        !- Start Date
    ,                         !- Duration
    ;                         !- Special Day Type

RunPeriodControl:SpecialDays,
    Independence Day,         !- Name
    7/4,                      !- Start Date
    ,                         !- Duration
    ;                         !- Special Day Type

RunPeriodControl:SpecialDays,
    Labor Day,                !- Name
    1st Monday in Sep,        !- Start Date
    ,                         !- Duration
    ;                         !- Special Day Type

RunPeriodControl:SpecialDays,
    Martin Luther King Day,    !- Name
    3rd Monday in Jan,        !- Start Date
    ,                         !- Duration
    ;                         !- Special Day Type

RunPeriodControl:SpecialDays,
    Memorial Day,             !- Name
    Last Monday in May,       !- Start Date
    ,                         !- Duration
    ;                         !- Special Day Type

RunPeriodControl:SpecialDays,
    New Year-s Day,           !- Name
    1/1,                      !- Start Date
    ,                         !- Duration
    ;                         !- Special Day Type

RunPeriodControl:SpecialDays,
    Presidents Day,           !- Name
    3rd Monday in Feb,        !- Start Date
    ,                         !- Duration
    ;                         !- Special Day Type

RunPeriodControl:SpecialDays,
    Thanksgiving Day,         !- Name
    4th Thursday in Nov,      !- Start Date
    ,                         !- Duration
    ;                         !- Special Day Type

RunPeriodControl:SpecialDays,
    Veterans Day,             !- Name
    11/11,                    !- Start Date
    ,                         !- Duration
    ;                         !- Special Day Type

RunPeriodControl:DaylightSavingTime,
    2nd Sunday in March,      !- Start Date
    2nd Sunday in November;    !- End Date

Site:GroundTemperature:BuildingSurface,
    19.527,                   !- January Ground Temperature
    19.502,                   !- February Ground Temperature
    19.536,                   !- March Ground Temperature
    19.598,                   !- April Ground Temperature
    20.002,                   !- May Ground Temperature
    21.64,                    !- June Ground Temperature
    22.225,                   !- July Ground Temperature
    22.375,                   !- August Ground Temperature
    21.449,                   !- September Ground Temperature
    20.121,                   !- October Ground Temperature
    19.802,                   !- November Ground Temperature
    19.633;                   !- December Ground Temperature

Site:WaterMainsTemperature,
    CORRELATION,              !- Calculation Method
    ,                         !- Temperature Schedule Name
    9.69,                     !- Annual Average Outdoor Air Temperature
    28.1;                     !- Maximum Difference In Monthly Average Outdoor Air Temperatures

ScheduleTypeLimits,
    Temperature,              !- Name
    -100.0,                   !- Lower Limit Value
    200.0,                    !- Upper Limit Value
    CONTINUOUS;               !- Numeric Type

ScheduleTypeLimits,
    S1 office back Thermostat Schedule Type Limits,    !- Name
    0.0,                      !- Lower Limit Value
    4.0,                      !- Upper Limit Value
    DISCRETE;                 !- Numeric Type

ScheduleTypeLimits,
    temp_setpoint,            !- Name
    0.0,                      !- Lower Limit Value
    50.0,                     !- Upper Limit Value
    continuous,               !- Numeric Type
    temperature;              !- Unit Type

ScheduleTypeLimits,
    S1 office core Thermostat Schedule Type Limits,    !- Name
    0.0,                      !- Lower Limit Value
    4.0,                      !- Upper Limit Value
    DISCRETE;                 !- Numeric Type

ScheduleTypeLimits,
    S1 office front Thermostat Schedule Type Limits,    !- Name
    0.0,                      !- Lower Limit Value
    4.0,                      !- Upper Limit Value
    DISCRETE;                 !- Numeric Type

ScheduleTypeLimits,
    S1 office left Thermostat Schedule Type Limits,    !- Name
    0.0,                      !- Lower Limit Value
    4.0,                      !- Upper Limit Value
    DISCRETE;                 !- Numeric Type

ScheduleTypeLimits,
    S1 office right Thermostat Schedule Type Limits,    !- Name
    0.0,                      !- Lower Limit Value
    4.0,                      !- Upper Limit Value
    DISCRETE;                 !- Numeric Type

ScheduleTypeLimits,
    activity_level,           !- Name
    0.0,                      !- Lower Limit Value
    600.0,                    !- Upper Limit Value
    continuous,               !- Numeric Type
    activitylevel;            !- Unit Type

ScheduleTypeLimits,
    any_number;               !- Name

ScheduleTypeLimits,
    fractional,               !- Name
    0.0,                      !- Lower Limit Value
    1.0,                      !- Upper Limit Value
    continuous;               !- Numeric Type

ScheduleTypeLimits,
    on_off,                   !- Name
    0.0,                      !- Lower Limit Value
    1.0,                      !- Upper Limit Value
    discrete;                 !- Numeric Type

ScheduleTypeLimits,
    positive_number,          !- Name
    0.0,                      !- Lower Limit Value
    ,                         !- Upper Limit Value
    continuous;               !- Numeric Type

ScheduleTypeLimits,
    Schedule Type Limits 1,    !- Name
    0.0,                      !- Lower Limit Value
    1.0,                      !- Upper Limit Value
    Discrete,                 !- Numeric Type
    availability;             !- Unit Type

ScheduleTypeLimits,
    shw_temp,                 !- Name
    0.0,                      !- Lower Limit Value
    100.0,                    !- Upper Limit Value
    continuous,               !- Numeric Type
    temperature;              !- Unit Type

ScheduleTypeLimits,
    Number,                   !- Name
    1.0,                      !- Lower Limit Value
    4.0,                      !- Upper Limit Value
    DISCRETE;                 !- Numeric Type

Schedule:Day:Interval,
    office heating week 0 Sunday,    !- Name
    temp_setpoint,            !- Schedule Type Limits Name
    No,                       !- Interpolate to Timestep
    01:00,                    !- Time 1
    15.5556,                  !- Value Until Time 1
    02:00,                    !- Time 2
    15.5556,                  !- Value Until Time 2
    03:00,                    !- Time 3
    15.5556,                  !- Value Until Time 3
    04:00,                    !- Time 4
    15.5556,                  !- Value Until Time 4
    05:00,                    !- Time 5
    15.5556,                  !- Value Until Time 5
    06:00,                    !- Time 6
    15.5556,                  !- Value Until Time 6
    07:00,                    !- Time 7
    15.5556,                  !- Value Until Time 7
    08:00,                    !- Time 8
    15.5556,                  !- Value Until Time 8
    09:00,                    !- Time 9
    15.5556,                  !- Value Until Time 9
    10:00,                    !- Time 10
    15.5556,                  !- Value Until Time 10
    11:00,                    !- Time 11
    15.5556,                  !- Value Until Time 11
    12:00,                    !- Time 12
    15.5556,                  !- Value Until Time 12
    13:00,                    !- Time 13
    15.5556,                  !- Value Until Time 13
    14:00,                    !- Time 14
    15.5556,                  !- Value Until Time 14
    15:00,                    !- Time 15
    15.5556,                  !- Value Until Time 15
    16:00,                    !- Time 16
    15.5556,                  !- Value Until Time 16
    17:00,                    !- Time 17
    15.5556,                  !- Value Until Time 17
    18:00,                    !- Time 18
    15.5556,                  !- Value Until Time 18
    19:00,                    !- Time 19
    15.5556,                  !- Value Until Time 19
    20:00,                    !- Time 20
    15.5556,                  !- Value Until Time 20
    21:00,                    !- Time 21
    15.5556,                  !- Value Until Time 21
    22:00,                    !- Time 22
    15.5556,                  !- Value Until Time 22
    23:00,                    !- Time 23
    15.5556,                  !- Value Until Time 23
    24:00,                    !- Time 24
    15.5556;                  !- Value Until Time 24

Schedule:Day:Interval,
    office heating week 0 Wednesday,    !- Name
    temp_setpoint,            !- Schedule Type Limits Name
    No,                       !- Interpolate to Timestep
    01:00,                    !- Time 1
    15.5556,                  !- Value Until Time 1
    02:00,                    !- Time 2
    15.5556,                  !- Value Until Time 2
    03:00,                    !- Time 3
    15.5556,                  !- Value Until Time 3
    04:00,                    !- Time 4
    15.5556,                  !- Value Until Time 4
    05:00,                    !- Time 5
    15.5556,                  !- Value Until Time 5
    06:00,                    !- Time 6
    21.1111,                  !- Value Until Time 6
    07:00,                    !- Time 7
    21.1111,                  !- Value Until Time 7
    08:00,                    !- Time 8
    21.1111,                  !- Value Until Time 8
    09:00,                    !- Time 9
    21.1111,                  !- Value Until Time 9
    10:00,                    !- Time 10
    21.1111,                  !- Value Until Time 10
    11:00,                    !- Time 11
    21.1111,                  !- Value Until Time 11
    12:00,                    !- Time 12
    21.1111,                  !- Value Until Time 12
    13:00,                    !- Time 13
    21.1111,                  !- Value Until Time 13
    14:00,                    !- Time 14
    21.1111,                  !- Value Until Time 14
    15:00,                    !- Time 15
    21.1111,                  !- Value Until Time 15
    16:00,                    !- Time 16
    21.1111,                  !- Value Until Time 16
    17:00,                    !- Time 17
    21.1111,                  !- Value Until Time 17
    18:00,                    !- Time 18
    21.1111,                  !- Value Until Time 18
    19:00,                    !- Time 19
    21.1111,                  !- Value Until Time 19
    20:00,                    !- Time 20
    21.1111,                  !- Value Until Time 20
    21:00,                    !- Time 21
    21.1111,                  !- Value Until Time 21
    22:00,                    !- Time 22
    21.1111,                  !- Value Until Time 22
    23:00,                    !- Time 23
    21.1111,                  !- Value Until Time 23
    24:00,                    !- Time 24
    21.1111;                  !- Value Until Time 24

Schedule:Day:Interval,
    office heating week 0 Thursday,    !- Name
    temp_setpoint,            !- Schedule Type Limits Name
    No,                       !- Interpolate to Timestep
    01:00,                    !- Time 1
    15.5556,                  !- Value Until Time 1
    02:00,                    !- Time 2
    15.5556,                  !- Value Until Time 2
    03:00,                    !- Time 3
    15.5556,                  !- Value Until Time 3
    04:00,                    !- Time 4
    15.5556,                  !- Value Until Time 4
    05:00,                    !- Time 5
    15.5556,                  !- Value Until Time 5
    06:00,                    !- Time 6
    21.1111,                  !- Value Until Time 6
    07:00,                    !- Time 7
    21.1111,                  !- Value Until Time 7
    08:00,                    !- Time 8
    21.1111,                  !- Value Until Time 8
    09:00,                    !- Time 9
    21.1111,                  !- Value Until Time 9
    10:00,                    !- Time 10
    21.1111,                  !- Value Until Time 10
    11:00,                    !- Time 11
    21.1111,                  !- Value Until Time 11
    12:00,                    !- Time 12
    21.1111,                  !- Value Until Time 12
    13:00,                    !- Time 13
    21.1111,                  !- Value Until Time 13
    14:00,                    !- Time 14
    21.1111,                  !- Value Until Time 14
    15:00,                    !- Time 15
    21.1111,                  !- Value Until Time 15
    16:00,                    !- Time 16
    21.1111,                  !- Value Until Time 16
    17:00,                    !- Time 17
    21.1111,                  !- Value Until Time 17
    18:00,                    !- Time 18
    21.1111,                  !- Value Until Time 18
    19:00,                    !- Time 19
    21.1111,                  !- Value Until Time 19
    20:00,                    !- Time 20
    21.1111,                  !- Value Until Time 20
    21:00,                    !- Time 21
    21.1111,                  !- Value Until Time 21
    22:00,                    !- Time 22
    21.1111,                  !- Value Until Time 22
    23:00,                    !- Time 23
    21.1111,                  !- Value Until Time 23
    24:00,                    !- Time 24
    21.1111;                  !- Value Until Time 24

Schedule:Day:Interval,
    office heating week 0 Friday,    !- Name
    temp_setpoint,            !- Schedule Type Limits Name
    No,                       !- Interpolate to Timestep
    01:00,                    !- Time 1
    15.5556,                  !- Value Until Time 1
    02:00,                    !- Time 2
    15.5556,                  !- Value Until Time 2
    03:00,                    !- Time 3
    15.5556,                  !- Value Until Time 3
    04:00,                    !- Time 4
    15.5556,                  !- Value Until Time 4
    05:00,                    !- Time 5
    15.5556,                  !- Value Until Time 5
    06:00,                    !- Time 6
    21.1111,                  !- Value Until Time 6
    07:00,                    !- Time 7
    21.1111,                  !- Value Until Time 7
    08:00,                    !- Time 8
    21.1111,                  !- Value Until Time 8
    09:00,                    !- Time 9
    21.1111,                  !- Value Until Time 9
    10:00,                    !- Time 10
    21.1111,                  !- Value Until Time 10
    11:00,                    !- Time 11
    21.1111,                  !- Value Until Time 11
    12:00,                    !- Time 12
    21.1111,                  !- Value Until Time 12
    13:00,                    !- Time 13
    21.1111,                  !- Value Until Time 13
    14:00,                    !- Time 14
    21.1111,                  !- Value Until Time 14
    15:00,                    !- Time 15
    21.1111,                  !- Value Until Time 15
    16:00,                    !- Time 16
    21.1111,                  !- Value Until Time 16
    17:00,                    !- Time 17
    21.1111,                  !- Value Until Time 17
    18:00,                    !- Time 18
    21.1111,                  !- Value Until Time 18
    19:00,                    !- Time 19
    21.1111,                  !- Value Until Time 19
    20:00,                    !- Time 20
    21.1111,                  !- Value Until Time 20
    21:00,                    !- Time 21
    21.1111,                  !- Value Until Time 21
    22:00,                    !- Time 22