  Version,8.9;

  LifeCycleCost:Parameters,
    {045206a3-96fa-4b0f-b899-504b9825af09},  !- Name
    EndOfYear,               !- Discounting Convention
    ConstantDollar,          !- Inflation Approach
    0.03,                    !- Real Discount Rate
    ,                        !- Nominal Discount Rate
    ,                        !- Inflation
    ,                        !- Base Date Month
    2011,                    !- Base Date Year
    ,                        !- Service Date Month
    2011,                    !- Service Date Year
    25,                      !- Length of Study Period in Years
    ,                        !- Tax rate
    None;                    !- Depreciation Method

  LifeCycleCost:UsePriceEscalation,
    U.S. Avg  Commercial-Electricity,  !- LCC Price Escalation Name
    Electricity,             !- Resource
    2011,                    !- Escalation Start Year
    January,                 !- Escalation Start Month
    0.9838,                  !- Year 1 Escalation
    0.9730,                  !- Year 2 Escalation
    0.9632,                  !- Year 3 Escalation
    0.9611,                  !- Year 4 Escalation
    0.9571,                  !- Year 5 Escalation
    0.9553,                  !- Year 6 Escalation
    0.9539,                  !- Year 7 Escalation
    0.9521,                  !- Year 8 Escalation
    0.9546,                  !- Year 9 Escalation
    0.9550,                  !- Year 10 Escalation
    0.9553,                  !- Year 11 Escalation
    0.9564,                  !- Year 12 Escalation
    0.9575,                  !- Year 13 Escalation
    0.9596,                  !- Year 14 Escalation
    0.9618,                  !- Year 15 Escalation
    0.9614,                  !- Year 16 Escalation
    0.9618,                  !- Year 17 Escalation
    0.9618,                  !- Year 18 Escalation
    0.9593,                  !- Year 19 Escalation
    0.9589,                  !- Year 20 Escalation
    0.9607,                  !- Year 21 Escalation
    0.9625,                  !- Year 22 Escalation
    0.9650,                  !- Year 23 Escalation
    0.9708,                  !- Year 24 Escalation
    0.9751,                  !- Year 25 Escalation
    0.9762,                  !- Year 26 Escalation
    0.9766,                  !- Year 27 Escalation
    0.9766,                  !- Year 28 Escalation
    0.9769,                  !- Year 29 Escalation
    0.9773;                  !- Year 30 Escalation

  LifeCycleCost:UsePriceEscalation,
    U.S. Avg  Commercial-Distillate Oil,  !- LCC Price Escalation Name
    FuelOil#1,               !- Resource
    2011,                    !- Escalation Start Year
    January,                 !- Escalation Start Month
    0.9714,                  !- Year 1 Escalation
    0.9730,                  !- Year 2 Escalation
    0.9942,                  !- Year 3 Escalation
    1.0164,                  !- Year 4 Escalation
    1.0541,                  !- Year 5 Escalation
    1.0928,                  !- Year 6 Escalation
    1.1267,                  !- Year 7 Escalation
    1.1580,                  !- Year 8 Escalation
    1.1792,                  !- Year 9 Escalation
    1.1967,                  !- Year 10 Escalation
    1.2200,                  !- Year 11 Escalation
    1.2333,                  !- Year 12 Escalation
    1.2566,                  !- Year 13 Escalation
    1.2709,                  !- Year 14 Escalation
    1.2826,                  !- Year 15 Escalation
    1.2985,                  !- Year 16 Escalation
    1.3102,                  !- Year 17 Escalation
    1.3250,                  !- Year 18 Escalation
    1.3261,                  !- Year 19 Escalation
    1.3282,                  !- Year 20 Escalation
    1.3324,                  !- Year 21 Escalation
    1.3356,                  !- Year 22 Escalation
    1.3431,                  !- Year 23 Escalation
    1.3510,                  !- Year 24 Escalation
    1.3568,                  !- Year 25 Escalation
    1.3606,                  !- Year 26 Escalation
    1.3637,                  !- Year 27 Escalation
    1.3674,                  !- Year 28 Escalation
    1.3706,                  !- Year 29 Escalation
    1.3743;                  !- Year 30 Escalation

  LifeCycleCost:UsePriceEscalation,
    U.S. Avg  Commercial-Residual Oil,  !- LCC Price Escalation Name
    FuelOil#2,               !- Resource
    2011,                    !- Escalation Start Year
    January,                 !- Escalation Start Month
    0.8469,                  !- Year 1 Escalation
    0.8257,                  !- Year 2 Escalation
    0.8681,                  !- Year 3 Escalation
    0.8988,                  !- Year 4 Escalation
    0.9289,                  !- Year 5 Escalation
    0.9604,                  !- Year 6 Escalation
    0.9897,                  !- Year 7 Escalation
    1.0075,                  !- Year 8 Escalation
    1.0314,                  !- Year 9 Escalation
    1.0554,                  !- Year 10 Escalation
    1.0861,                  !- Year 11 Escalation
    1.1278,                  !- Year 12 Escalation
    1.1497,                  !- Year 13 Escalation
    1.1620,                  !- Year 14 Escalation
    1.1743,                  !- Year 15 Escalation
    1.1852,                  !- Year 16 Escalation
    1.1948,                  !- Year 17 Escalation
    1.2037,                  !- Year 18 Escalation
    1.2071,                  !- Year 19 Escalation
    1.2119,                  !- Year 20 Escalation
    1.2139,                  !- Year 21 Escalation
    1.2194,                  !- Year 22 Escalation
    1.2276,                  !- Year 23 Escalation
    1.2365,                  !- Year 24 Escalation
    1.2420,                  !- Year 25 Escalation
    1.2461,                  !- Year 26 Escalation
    1.2509,                  !- Year 27 Escalation
    1.2550,                  !- Year 28 Escalation
    1.2591,                  !- Year 29 Escalation
    1.2638;                  !- Year 30 Escalation

  LifeCycleCost:UsePriceEscalation,
    U.S. Avg  Commercial-Natural gas,  !- LCC Price Escalation Name
    NaturalGas,              !- Resource
    2011,                    !- Escalation Start Year
    January,                 !- Escalation Start Month
    0.9823,                  !- Year 1 Escalation
    0.9557,                  !- Year 2 Escalation
    0.9279,                  !- Year 3 Escalation
    0.9257,                  !- Year 4 Escalation
    0.9346,                  !- Year 5 Escalation
    0.9412,                  !- Year 6 Escalation
    0.9512,                  !- Year 7 Escalation
    0.9645,                  !- Year 8 Escalation
    0.9856,                  !- Year 9 Escalation
    1.0067,                  !- Year 10 Escalation
    1.0222,                  !- Year 11 Escalation
    1.0410,                  !- Year 12 Escalation
    1.0610,                  !- Year 13 Escalation
    1.0787,                  !- Year 14 Escalation
    1.0942,                  !- Year 15 Escalation
    1.1098,                  !- Year 16 Escalation
    1.1220,                  !- Year 17 Escalation
    1.1308,                  !- Year 18 Escalation
    1.1386,                  !- Year 19 Escalation
    1.1486,                  !- Year 20 Escalation
    1.1619,                  !- Year 21 Escalation
    1.1763,                  !- Year 22 Escalation
    1.1918,                  !- Year 23 Escalation
    1.2118,                  !- Year 24 Escalation
    1.2284,                  !- Year 25 Escalation
    1.2439,                  !- Year 26 Escalation
    1.2605,                  !- Year 27 Escalation
    1.2772,                  !- Year 28 Escalation
    1.2938,                  !- Year 29 Escalation
    1.3115;                  !- Year 30 Escalation

  LifeCycleCost:UsePriceEscalation,
    U.S. Avg  Commercial-Coal,  !- LCC Price Escalation Name
    Coal,                    !- Resource
    2011,                    !- Escalation Start Year
    January,                 !- Escalation Start Month
    0.9970,                  !- Year 1 Escalation
    1.0089,                  !- Year 2 Escalation
    1.0089,                  !- Year 3 Escalation
    0.9941,                  !- Year 4 Escalation
    0.9941,                  !- Year 5 Escalation
    1.0000,                  !- Year 6 Escalation
    1.0030,                  !- Year 7 Escalation
    1.0059,                  !- Year 8 Escalation
    1.0089,                  !- Year 9 Escalation
    1.0119,                  !- Year 10 Escalation
    1.0148,                  !- Year 11 Escalation
    1.0178,                  !- Year 12 Escalation
    1.0208,                  !- Year 13 Escalation
    1.0267,                  !- Year 14 Escalation
    1.0297,                  !- Year 15 Escalation
    1.0356,                  !- Year 16 Escalation
    1.0415,                  !- Year 17 Escalation
    1.0534,                  !- Year 18 Escalation
    1.0564,                  !- Year 19 Escalation
    1.0593,                  !- Year 20 Escalation
    1.0653,                  !- Year 21 Escalation
    1.0712,                  !- Year 22 Escalation
    1.0742,                  !- Year 23 Escalation
    1.0801,                  !- Year 24 Escalation
    1.0831,                  !- Year 25 Escalation
    1.0831,                  !- Year 26 Escalation
    1.0861,                  !- Year 27 Escalation
    1.0890,                  !- Year 28 Escalation
    1.0920,                  !- Year 29 Escalation
    1.0950;                  !- Year 30 Escalation

  Building,
    Building 1,              !- Name
    0,                       !- North Axis {deg}
    city,                    !- Terrain
    ,                        !- Loads Convergence Tolerance Value
    ,                        !- Temperature Convergence Tolerance Value {deltaC}
    FullInteriorAndExterior, !- Solar Distribution
    50,                      !- Maximum Number of Warmup Days
    ;                        !- Minimum Number of Warmup Days

  Zone,
    S1 office back,          !- Name
    ,                        !- Direction of Relative North {deg}
    ,                        !- X Origin {m}
    ,                        !- Y Origin {m}
    ,                        !- Z Origin {m}
    ,                        !- Type
    ,                        !- Multiplier
    ,                        !- Ceiling Height {m}
    ,                        !- Volume {m3}
    ,                        !- Floor Area {m2}
    ,                        !- Zone Inside Convection Algorithm
    ,                        !- Zone Outside Convection Algorithm
    Yes;                     !- Part of Total Floor Area

  BuildingSurface:Detailed,
    S1 office back back_wall,!- Name
    Wall,                    !- Surface Type
    office ext wall Metal framed walls,  !- Construction Name
    S1 office back,          !- Zone Name
    Outdoors,                !- Outside Boundary Condition
    ,                        !- Outside Boundary Condition Object
    SunExposed,              !- Sun Exposure
    WindExposed,             !- Wind Exposure
    ,                        !- View Factor to Ground
    ,                        !- Number of Vertices
    32.3289,21.5526,2.74,  !- X,Y,Z ==> Vertex 1 {m}
    32.3289,21.5526,0,  !- X,Y,Z ==> Vertex 2 {m}
    0,21.5526,0,  !- X,Y,Z ==> Vertex 3 {m}
    0,21.5526,2.74;  !- X,Y,Z ==> Vertex 4 {m}

  FenestrationSurface:Detailed,
    S1 office back back_wall win_1,  !- Name
    Window,                  !- Surface Type
    office Window construction_simple glazing,  !- Construction Name
    S1 office back back_wall,!- Building Surface Name
    ,                        !- Outside Boundary Condition Object
    ,                        !- View Factor to Ground
    ,                        !- Shading Control Name
    ,                        !- Frame and Divider Name
    ,                        !- Multiplier
    ,                        !- Number of Vertices
    25.7801708486842,21.5526,2.42,  !- X,Y,Z ==> Vertex 1 {m}
    25.7801708486842,21.5526,0.9,  !- X,Y,Z ==> Vertex 2 {m}
    6.54872915131579,21.5526,0.9,  !- X,Y,Z ==> Vertex 3 {m}
    6.54872915131579,21.5526,2.42;  !- X,Y,Z ==> Vertex 4 {m}

  BuildingSurface:Detailed,
    S1 office back floor,    !- Name
    Floor,                   !- Surface Type
    office ext floor Ground Floor,  !- Construction Name
    S1 office back,          !- Zone Name
    Ground,                  !- Outside Boundary Condition
    ,                        !- Outside Boundary Condition Object
    NoSun,                   !- Sun Exposure
    NoWind,                  !- Wind Exposure
    ,                        !- View Factor to Ground
    ,                        !- Number of Vertices
    5,16.5526,0,  !- X,Y,Z ==> Vertex 1 {m}
    0,21.5526,0,  !- X,Y,Z ==> Vertex 2 {m}
    32.3289,21.5526,0,  !- X,Y,Z ==> Vertex 3 {m}
    27.3289,16.5526,0;  !- X,Y,Z ==> Vertex 4 {m}

  BuildingSurface:Detailed,
    S1 office back front_wall,  !- Name
    Wall,                    !- Surface Type
    office int wall NACM_Interior Wall,  !- Construction Name
    S1 office back,          !- Zone Name
    Surface,                 !- Outside Boundary Condition
    S1 office core back_wall,!- Outside Boundary Condition Object
    NoSun,                   !- Sun Exposure
    NoWind,                  !- Wind Exposure
    ,                        !- View Factor to Ground
    ,                        !- Number of Vertices
    5,16.5526,2.74,  !- X,Y,Z ==> Vertex 1 {m}
    5,16.5526,0,  !- X,Y,Z ==> Vertex 2 {m}
    27.3289,16.5526,0,  !- X,Y,Z ==> Vertex 3 {m}
    27.3289,16.5526,2.74;  !- X,Y,Z ==> Vertex 4 {m}

  BuildingSurface:Detailed,
    S1 office back left_wall,!- Name
    Wall,                    !- Surface Type
    office int wall NACM_Interior Wall,  !- Construction Name
    S1 office back,          !- Zone Name
    Surface,                 !- Outside Boundary Condition
    S1 office left back_wall,!- Outside Boundary Condition Object
    NoSun,                   !- Sun Exposure
    NoWind,                  !- Wind Exposure
    ,                        !- View Factor to Ground
    ,                        !- Number of Vertices
    0,21.5526,2.74,  !- X,Y,Z ==> Vertex 1 {m}
    0,21.5526,0,  !- X,Y,Z ==> Vertex 2 {m}
    5,16.5526,0,  !- X,Y,Z ==> Vertex 3 {m}
    5,16.5526,2.74;  !- X,Y,Z ==> Vertex 4 {m}

  BuildingSurface:Detailed,
    S1 office back right_wall,  !- Name
    Wall,                    !- Surface Type
    office int wall NACM_Interior Wall,  !- Construction Name
    S1 office back,          !- Zone Name
    Surface,                 !- Outside Boundary Condition
    S1 office right back_wall,  !- Outside Boundary Condition Object
    NoSun,                   !- Sun Exposure
    NoWind,                  !- Wind Exposure
    ,                        !- View Factor to Ground
    ,                        !- Number of Vertices
    27.3289,16.5526,2.74,  !- X,Y,Z ==> Vertex 1 {m}
    27.3289,16.5526,0,  !- X,Y,Z ==> Vertex 2 {m}
    32.3289,21.5526,0,  !- X,Y,Z ==> Vertex 3 {m}
    32.3289,21.5526,2.74;  !- X,Y,Z ==> Vertex 4 {m}

  BuildingSurface:Detailed,
    S1 office back roof,     !- Name
    Ceiling,                 !- Surface Type
    office ceiling Metal roof,  !- Construction Name
    S1 office back,          !- Zone Name
    Surface,                 !- Outside Boundary Condition
    S1 plenum back_floor,    !- Outside Boundary Condition Object
    NoSun,                   !- Sun Exposure
    NoWind,                  !- Wind Exposure
    ,                        !- View Factor to Ground
    ,                        !- Number of Vertices
    0,21.5526,2.74,  !- X,Y,Z ==> Vertex 1 {m}
    5,16.5526,2.74,  !- X,Y,Z ==> Vertex 2 {m}
    27.3289,16.5526,2.74,  !- X,Y,Z ==> Vertex 3 {m}
    32.3289,21.5526,2.74;  !- X,Y,Z ==> Vertex 4 {m}

  ZoneControl:Thermostat,
    S1 office back Thermostat,  !- Name
    S1 office back,          !- Zone or ZoneList Name
    S1 office back Thermostat Schedule,  !- Control Type Schedule Name
    ThermostatSetpoint:DualSetpoint,  !- Control 1 Object Type
    office thermostat;     !- Control 1 Name

  Schedule:Compact,
    S1 office back Thermostat Schedule,  !- Name
    S1 office back Thermostat Schedule Type Limits,  !- Schedule Type Limits Name
    Through: 12/31,          !- Field 1
    For: AllDays,            !- Field 2
    Until: 24:00,4;          !- Field 3

ScheduleTypeLimits,
    Any Number;              !- Name

  ScheduleTypeLimits,
    S1 office back Thermostat Schedule Type Limits,  !- Name
    0,                       !- Lower Limit Value
    4,                       !- Upper Limit Value
    DISCRETE;                !- Numeric Type

  Schedule:Year,
    office heating year,     !- Name
    temp_setpoint,           !- Schedule Type Limits Name
    office heating week 0,   !- Schedule:Week Name 1
    1,                       !- Start Month 1
    1,                       !- Start Day 1
    12,                      !- End Month 1
    31;                      !- End Day 1

  ScheduleTypeLimits,
    temp_setpoint,           !- Name
    0,                       !- Lower Limit Value
    50,                      !- Upper Limit Value
    continuous,              !- Numeric Type
    temperature;             !- Unit Type

  Schedule:Week:Daily,
    office heating week 0,   !- Name
    office heating week 0 Sunday,  !- Sunday Schedule:Day Name
    office heating week 0 Wednesday,  !- Monday Schedule:Day Name
    office heating week 0 Wednesday,  !- Tuesday Schedule:Day Name
    office heating week 0 Wednesday,  !- Wednesday Schedule:Day Name
    office heating week 0 Thursday,  !- Thursday Schedule:Day Name
    office heating week 0 Friday,  !- Friday Schedule:Day Name
    office heating week 0 Saturday,  !- Saturday Schedule:Day Name
    office heating week 0 Holiday,  !- Holiday Schedule:Day Name
    office heating week 0 Summer design,  !- SummerDesignDay Schedule:Day Name
    office heating week 0 Winter design,  !- WinterDesignDay Schedule:Day Name
    office heating week 0 Holiday,  !- CustomDay1 Schedule:Day Name
    office heating week 0 Holiday;  !- CustomDay2 Schedule:Day Name

  Schedule:Day:Interval,
    office heating week 0 Sunday,  !- Name
    temp_setpoint,           !- Schedule Type Limits Name
    No,                      !- Interpolate to Timestep
    01:00,                   !- Time 1
    15.5556,                 !- Value Until Time 1
    02:00,                   !- Time 2
    15.5556,                 !- Value Until Time 2
    03:00,                   !- Time 3
    15.5556,                 !- Value Until Time 3
    04:00,                   !- Time 4
    15.5556,                 !- Value Until Time 4
    05:00,                   !- Time 5
    15.5556,                 !- Value Until Time 5
    06:00,                   !- Time 6
    15.5556,                 !- Value Until Time 6
    07:00,                   !- Time 7
    15.5556,                 !- Value Until Time 7
    08:00,                   !- Time 8
    15.5556,                 !- Value Until Time 8
    09:00,                   !- Time 9
    15.5556,                 !- Value Until Time 9
    10:00,                   !- Time 10
    15.5556,                 !- Value Until Time 10
    11:00,                   !- Time 11
    15.5556,                 !- Value Until Time 11
    12:00,                   !- Time 12
    15.5556,                 !- Value Until Time 12
    13:00,                   !- Time 13
    15.5556,                 !- Value Until Time 13
    14:00,                   !- Time 14
    15.5556,                 !- Value Until Time 14
    15:00,                   !- Time 15
    15.5556,                 !- Value Until Time 15
    16:00,                   !- Time 16
    15.5556,                 !- Value Until Time 16
    17:00,                   !- Time 17
    15.5556,                 !- Value Until Time 17
    18:00,                   !- Time 18
    15.5556,                 !- Value Until Time 18
    19:00,                   !- Time 19
    15.5556,                 !- Value Until Time 19
    20:00,                   !- Time 20
    15.5556,                 !- Value Until Time 20
    21:00,                   !- Time 21
    15.5556,                 !- Value Until Time 21
    22:00,                   !- Time 22
    15.5556,                 !- Value Until Time 22
    23:00,                   !- Time 23
    15.5556,                 !- Value Until Time 23
    24:00,                   !- Time 24
    15.5556;                 !- Value Until Time 24

  Schedule:Day:Interval,
    office heating week 0 Wednesday,  !- Name
    temp_setpoint,           !- Schedule Type Limits Name
    No,                      !- Interpolate to Timestep
    01:00,                   !- Time 1
    15.5556,                 !- Value Until Time 1
    02:00,                   !- Time 2
    15.5556,                 !- Value Until Time 2
    03:00,                   !- Time 3
    15.5556,                 !- Value Until Time 3
    04:00,                   !- Time 4
    15.5556,                 !- Value Until Time 4
    05:00,                   !- Time 5
    15.5556,                 !- Value Until Time 5
    06:00,                   !- Time 6
    21.1111,                 !- Value Until Time 6
    07:00,                   !- Time 7
    21.1111,                 !- Value Until Time 7
    08:00,                   !- Time 8
    21.1111,                 !- Value Until Time 8
    09:00,                   !- Time 9
    21.1111,                 !- Value Until Time 9
    10:00,                   !- Time 10
    21.1111,                 !- Value Until Time 10
    11:00,                   !- Time 11
    21.1111,                 !- Value Until Time 11
    12:00,                   !- Time 12
    21.1111,                 !- Value Until Time 12
    13:00,                   !- Time 13
    21.1111,                 !- Value Until Time 13
    14:00,                   !- Time 14
    21.1111,                 !- Value Until Time 14
    15:00,                   !- Time 15
    21.1111,                 !- Value Until Time 15
    16:00,                   !- Time 16
    21.1111,                 !- Value Until Time 16
    17:00,                   !- Time 17
    21.1111,                 !- Value Until Time 17
    18:00,                   !- Time 18
    21.1111,                 !- Value Until Time 18
    19:00,                   !- Time 19
    21.1111,                 !- Value Until Time 19
    20:00,                   !- Time 20
    21.1111,                 !- Value Until Time 20
    21:00,                   !- Time 21
    21.1111,                 !- Value Until Time 21
    22:00,                   !- Time 22
    21.1111,                 !- Value Until Time 22
    23:00,                   !- Time 23
    21.1111,                 !- Value Until Time 23
    24:00,                   !- Time 24
    21.1111;                 !- Value Until Time 24

  Schedule:Day:Interval,
    office heating week 0 Thursday,  !- Name
    temp_setpoint,           !- Schedule Type Limits Name
    No,                      !- Interpolate to Timestep
    01:00,                   !- Time 1
    15.5556,                 !- Value Until Time 1
    02:00,                   !- Time 2
    15.5556,                 !- Value Until Time 2
    03:00,                   !- Time 3
    15.5556,                 !- Value Until Time 3
    04:00,                   !- Time 4
    15.5556,                 !- Value Until Time 4
    05:00,                   !- Time 5
    15.5556,                 !- Value Until Time 5
    06:00,                   !- Time 6
    21.1111,                 !- Value Until Time 6
    07:00,                   !- Time 7
    21.1111,                 !- Value Until Time 7
    08:00,                   !- Time 8
    21.1111,                 !- Value Until Time 8
    09:00,                   !- Time 9
    21.1111,                 !- Value Until Time 9
    10:00,                   !- Time 10
    21.1111,                 !- Value Until Time 10
    11:00,                   !- Time 11
    21.1111,                 !- Value Until Time 11
    12:00,                   !- Time 12
    21.1111,                 !- Value Until Time 12
    13:00,                   !- Time 13
    21.1111,                 !- Value Until Time 13
    14:00,                   !- Time 14
    21.1111,                 !- Value Until Time 14
    15:00,                   !- Time 15
    21.1111,                 !- Value Until Time 15
    16:00,                   !- Time 16
    21.1111,                 !- Value Until Time 16
    17:00,                   !- Time 17
    21.1111,                 !- Value Until Time 17
    18:00,                   !- Time 18
    21.1111,                 !- Value Until Time 18
    19:00,                   !- Time 19
    21.1111,                 !- Value Until Time 19
    20:00,                   !- Time 20
    21.1111,                 !- Value Until Time 20
    21:00,                   !- Time 21
    21.1111,                 !- Value Until Time 21
    22:00,                   !- Time 22
    21.1111,                 !- Value Until Time 22
    23:00,                   !- Time 23
    21.1111,                 !- Value Until Time 23
    24:00,                   !- Time 24
    21.1111;                 !- Value Until Time 24

  Schedule:Day:Interval,
    office heating week 0 Friday,  !- Name
    temp_setpoint,           !- Schedule Type Limits Name
    No,                      !- Interpolate to Timestep
    01:00,                   !- Time 1
    15.5556,                 !- Value Until Time 1
    02:00,                   !- Time 2
    15.5556,                 !- Value Until Time 2
    03:00,                   !- Time 3
    15.5556,                 !- Value Until Time 3
    04:00,                   !- Time 4
    15.5556,                 !- Value Until Time 4
    05:00,                   !- Time 5
    15.5556,                 !- Value Until Time 5
    06:00,                   !- Time 6
    21.1111,                 !- Value Until Time 6
    07:00,                   !- Time 7
    21.1111,                 !- Value Until Time 7
    08:00,                   !- Time 8
    21.1111,                 !- Value Until Time 8
    09:00,                   !- Time 9
    21.1111,                 !- Value Until Time 9
    10:00,                   !- Time 10
    21.1111,                 !- Value Until Time 10
    11:00,                   !- Time 11
    21.1111,                 !- Value Until Time 11
    12:00,                   !- Time 12
    21.1111,                 !- Value Until Time 12
    13:00,                   !- Time 13
    21.1111,                 !- Value Until Time 13
    14:00,                   !- Time 14
    21.1111,                 !- Value Until Time 14
    15:00,                   !- Time 15
    21.1111,                 !- Value Until Time 15
    16:00,                   !- Time 16
    21.1111,                 !- Value Until Time 16
    17:00,                   !- Time 17
    21.1111,                 !- Value Until Time 17
    18:00,                   !- Time 18
    21.1111,                 !- Value Until Time 18
    19:00,                   !- Time 19
    21.1111,                 !- Value Until Time 19
    20:00,                   !- Time 20
    21.1111,                 !- Value Until Time 20
    21:00,                   !- Time 21
    21.1111,                 !- Value Until Time 21
    22:00,                   !- Time 22
    21.1111,                 !- Value Until Time 22
    23:00,                   !- Time 23
    21.1111,                 !- Value Until Time 23
    24:00,                   !- Time 24
    21.1111;                 !- Value Until Time 24

  Schedule:Day:Interval,
    office heating week 0 Saturday,  !- Name
    temp_setpoint,           !- Schedule Type Limits Name
    No,                      !- Interpolate to Timestep
    01:00,                   !- Time 1
    15.5556,                 !- Value Until Time 1
    02:00,                   !- Time 2
    15.5556,                 !- Value Until Time 2
    03:00,                   !- Time 3
    15.5556,                 !- Value Until Time 3
    04:00,                   !- Time 4
    15.5556,                 !- Value Until Time 4
    05:00,                   !- Time 5
    15.5556,                 !- Value Until Time 5
    06:00,                   !- Time 6
    21.1111,                 !- Value Until Time 6
    07:00,                   !- Time 7
    21.1111,                 !- Value Until Time 7
    08:00,                   !- Time 8
    21.1111,                 !- Value Until Time 8
    09:00,                   !- Time 9
    21.1111,                 !- Value Until Time 9
    10:00,                   !- Time 10
    21.1111,                 !- Value Until Time 10
    11:00,                   !- Time 11
    21.1111,                 !- Value Until Time 11
    12:00,                   !- Time 12
    21.1111,                 !- Value Until Time 12
    13:00,                   !- Time 13
    21.1111,                 !- Value Until Time 13
    14:00,                   !- Time 14
    21.1111,                 !- Value Until Time 14
    15:00,                   !- Time 15
    21.1111,                 !- Value Until Time 15
    16:00,                   !- Time 16
    21.1111,                 !- Value Until Time 16
    17:00,                   !- Time 17
    21.1111,                 !- Value Until Time 17
    18:00,                   !- Time 18
    21.1111,                 !- Value Until Time 18
    19:00,                   !- Time 19
    21.1111,                 !- Value Until Time 19
    20:00,                   !- Time 20
    15.5556,                 !- Value Until Time 20
    21:00,                   !- Time 21
    15.5556,                 !- Value Until Time 21
    22:00,                   !- Time 22
    15.5556,                 !- Value Until Time 22
    23:00,                   !- Time 23
    15.5556,                 !- Value Until Time 23